/*--------------------------------*- C++ -*----------------------------------*\
| =========                 |                                                 |
| \\      /  F ield         | OpenFOAM: The Open Source CFD Toolbox           |
|  \\    /   O peration     | Version:  2.1.1                                 |
|   \\  /    A nd           | Web:      www.OpenFOAM.org                      |
|    \\/     M anipulation  |                                                 |
\*---------------------------------------------------------------------------*/
FoamFile
{
    version     2.0;
    format      ascii;
    class       dictionary;
    location    "system";
    object      controlDict;
}
// * * * * * * * * * * * * * * * * * * * * * * * * * * * * * * * * * * * * * //

application       xxx;

startFrom         startTime;
startTime         0;
stopAt            endTime;
endTime           3;
deltaT            1;

writeControl      adjustableRunTime;
writeInterval     1e-03;
purgeWrite        0;
writeFormat       binary;
writePrecision    8;
writeCompression  off;
timeFormat        general;
timePrecision     7;
graphFormat       raw;
runTimeModifiable true;

functions 
{
}

// ************************************************************************* //
